Circuit: * Z:\home\ckamas\ckamas\VirtualPipeOrgan\July2022-ordered-PCB\Draft1.asc

Direct Newton iteration for .op point succeeded.
Ignoring empty pin current: Ix(u1:1)
Ignoring empty pin current: Ix(u1:2)
Ignoring empty pin current: Ix(u2:1)
Ignoring empty pin current: Ix(u2:2)
Ignoring empty pin current: Ix(u1:1)
Ignoring empty pin current: Ix(u1:2)
Ignoring empty pin current: Ix(u2:1)
Ignoring empty pin current: Ix(u2:2)

Date: Sat Sep  2 19:46:21 2023
Total elapsed time: 0.077 seconds.

tnom = 27
temp = 27
method = modified trap
totiter = 5043
traniter = 5040
tranpoints = 2521
accept = 2521
rejected = 0
matrix size = 11
fillins = 3
solver = Normal
Avg thread counts: 1.1/1.3/1.3/1.1
Matrix Compiler1: 598 bytes object code size  0.5/0.3/[0.3]
Matrix Compiler2: 835 bytes object code size  0.3/0.4/[0.2]

